
---------- Begin Simulation Statistics ----------
sim_seconds                                  0.057254                       # Number of seconds simulated
sim_ticks                                 57253859000                       # Number of ticks simulated
final_tick                                81963232000                       # Number of ticks from beginning of simulation (restored from checkpoints and never reset)
sim_freq                                 1000000000000                       # Frequency of simulated ticks
host_inst_rate                                 178623                       # Simulator instruction rate (inst/s)
host_op_rate                                   318212                       # Simulator op (including micro ops) rate (op/s)
host_tick_rate                              102268312                       # Simulator tick rate (ticks/s)
host_mem_usage                                2243260                       # Number of bytes of host memory used
host_seconds                                   559.84                       # Real time elapsed on the host
sim_insts                                   100000008                       # Number of instructions simulated
sim_ops                                     178147548                       # Number of ops (including micro ops) simulated
system.physmem.bytes_read::switch_cpus.inst         6400                       # Number of bytes read from this memory
system.physmem.bytes_read::switch_cpus.data        33664                       # Number of bytes read from this memory
system.physmem.bytes_read::cpu.inst               128                       # Number of bytes read from this memory
system.physmem.bytes_read::cpu.data               128                       # Number of bytes read from this memory
system.physmem.bytes_read::total                40320                       # Number of bytes read from this memory
system.physmem.bytes_inst_read::switch_cpus.inst         6400                       # Number of instructions bytes read from this memory
system.physmem.bytes_inst_read::cpu.inst          128                       # Number of instructions bytes read from this memory
system.physmem.bytes_inst_read::total            6528                       # Number of instructions bytes read from this memory
system.physmem.num_reads::switch_cpus.inst          100                       # Number of read requests responded to by this memory
system.physmem.num_reads::switch_cpus.data          526                       # Number of read requests responded to by this memory
system.physmem.num_reads::cpu.inst                  2                       # Number of read requests responded to by this memory
system.physmem.num_reads::cpu.data                  2                       # Number of read requests responded to by this memory
system.physmem.num_reads::total                   630                       # Number of read requests responded to by this memory
system.physmem.bw_read::switch_cpus.inst       111783                       # Total read bandwidth from this memory (bytes/s)
system.physmem.bw_read::switch_cpus.data       587978                       # Total read bandwidth from this memory (bytes/s)
system.physmem.bw_read::cpu.inst                 2236                       # Total read bandwidth from this memory (bytes/s)
system.physmem.bw_read::cpu.data                 2236                       # Total read bandwidth from this memory (bytes/s)
system.physmem.bw_read::total                  704232                       # Total read bandwidth from this memory (bytes/s)
system.physmem.bw_inst_read::switch_cpus.inst       111783                       # Instruction read bandwidth from this memory (bytes/s)
system.physmem.bw_inst_read::cpu.inst            2236                       # Instruction read bandwidth from this memory (bytes/s)
system.physmem.bw_inst_read::total             114019                       # Instruction read bandwidth from this memory (bytes/s)
system.physmem.bw_total::switch_cpus.inst       111783                       # Total bandwidth to/from this memory (bytes/s)
system.physmem.bw_total::switch_cpus.data       587978                       # Total bandwidth to/from this memory (bytes/s)
system.physmem.bw_total::cpu.inst                2236                       # Total bandwidth to/from this memory (bytes/s)
system.physmem.bw_total::cpu.data                2236                       # Total bandwidth to/from this memory (bytes/s)
system.physmem.bw_total::total                 704232                       # Total bandwidth to/from this memory (bytes/s)
system.cpu.workload.num_syscalls                    0                       # Number of system calls
system.switch_cpus.numCycles                 57253850                       # number of cpu cycles simulated
system.switch_cpus.numWorkItemsStarted              0                       # number of work items this cpu started
system.switch_cpus.numWorkItemsCompleted            0                       # number of work items this cpu completed
system.switch_cpus.BPredUnit.lookups         17485158                       # Number of BP lookups
system.switch_cpus.BPredUnit.condPredicted     17485158                       # Number of conditional branches predicted
system.switch_cpus.BPredUnit.condIncorrect        66001                       # Number of conditional branches incorrect
system.switch_cpus.BPredUnit.BTBLookups      15862557                       # Number of BTB lookups
system.switch_cpus.BPredUnit.BTBHits         15834354                       # Number of BTB hits
system.switch_cpus.BPredUnit.BTBCorrect             0                       # Number of correct BTB predictions (this stat may not work properly.
system.switch_cpus.BPredUnit.usedRAS                0                       # Number of times the RAS was used to get a target.
system.switch_cpus.BPredUnit.RASInCorrect            0                       # Number of incorrect RAS predictions.
system.switch_cpus.fetch.icacheStallCycles     14772542                       # Number of cycles fetch is stalled on an Icache miss
system.switch_cpus.fetch.Insts              101589443                       # Number of instructions fetch has processed
system.switch_cpus.fetch.Branches            17485158                       # Number of branches that fetch encountered
system.switch_cpus.fetch.predictedBranches     15834354                       # Number of branches that fetch has predicted taken
system.switch_cpus.fetch.Cycles              32649546                       # Number of cycles fetch has run and was not squashing or blocked
system.switch_cpus.fetch.SquashCycles          337861                       # Number of cycles fetch has spent squashing
system.switch_cpus.fetch.BlockedCycles        5745284                       # Number of cycles fetch has spent blocked
system.switch_cpus.fetch.CacheLines          14651503                       # Number of cache lines fetched
system.switch_cpus.fetch.IcacheSquashes          5587                       # Number of outstanding Icache misses that were squashed
system.switch_cpus.fetch.rateDist::samples     53439208                       # Number of instructions fetched each cycle (Total)
system.switch_cpus.fetch.rateDist::mean      3.385246                       # Number of instructions fetched each cycle (Total)
system.switch_cpus.fetch.rateDist::stdev     3.438690                       # Number of instructions fetched each cycle (Total)
system.switch_cpus.fetch.rateDist::underflows            0      0.00%      0.00% # Number of instructions fetched each cycle (Total)
system.switch_cpus.fetch.rateDist::0         20880631     39.07%     39.07% # Number of instructions fetched each cycle (Total)
system.switch_cpus.fetch.rateDist::1          1143135      2.14%     41.21% # Number of instructions fetched each cycle (Total)
system.switch_cpus.fetch.rateDist::2          9620978     18.00%     59.22% # Number of instructions fetched each cycle (Total)
system.switch_cpus.fetch.rateDist::3           639488      1.20%     60.41% # Number of instructions fetched each cycle (Total)
system.switch_cpus.fetch.rateDist::4           121132      0.23%     60.64% # Number of instructions fetched each cycle (Total)
system.switch_cpus.fetch.rateDist::5           264592      0.50%     61.13% # Number of instructions fetched each cycle (Total)
system.switch_cpus.fetch.rateDist::6           769722      1.44%     62.58% # Number of instructions fetched each cycle (Total)
system.switch_cpus.fetch.rateDist::7          7820725     14.63%     77.21% # Number of instructions fetched each cycle (Total)
system.switch_cpus.fetch.rateDist::8         12178805     22.79%    100.00% # Number of instructions fetched each cycle (Total)
system.switch_cpus.fetch.rateDist::overflows            0      0.00%    100.00% # Number of instructions fetched each cycle (Total)
system.switch_cpus.fetch.rateDist::min_value            0                       # Number of instructions fetched each cycle (Total)
system.switch_cpus.fetch.rateDist::max_value            8                       # Number of instructions fetched each cycle (Total)
system.switch_cpus.fetch.rateDist::total     53439208                       # Number of instructions fetched each cycle (Total)
system.switch_cpus.fetch.branchRate          0.305397                       # Number of branch fetches per cycle
system.switch_cpus.fetch.rate                1.774369                       # Number of inst fetches per cycle
system.switch_cpus.decode.IdleCycles         15773842                       # Number of cycles decode is idle
system.switch_cpus.decode.BlockedCycles       4851291                       # Number of cycles decode is blocked
system.switch_cpus.decode.RunCycles          31646051                       # Number of cycles decode is running
system.switch_cpus.decode.UnblockCycles        896182                       # Number of cycles decode is unblocking
system.switch_cpus.decode.SquashCycles         271836                       # Number of cycles decode is squashing
system.switch_cpus.decode.DecodedInsts      180801203                       # Number of instructions handled by decode
system.switch_cpus.rename.SquashCycles         271836                       # Number of cycles rename is squashing
system.switch_cpus.rename.IdleCycles         16720087                       # Number of cycles rename is idle
system.switch_cpus.rename.BlockCycles         2998169                       # Number of cycles rename is blocking
system.switch_cpus.rename.serializeStallCycles            0                       # count of cycles rename stalled for serializing inst
system.switch_cpus.rename.RunCycles          31595967                       # Number of cycles rename is running
system.switch_cpus.rename.UnblockCycles       1853143                       # Number of cycles rename is unblocking
system.switch_cpus.rename.RenamedInsts      180663596                       # Number of instructions processed by rename
system.switch_cpus.rename.ROBFullEvents             4                       # Number of times rename has blocked due to ROB full
system.switch_cpus.rename.IQFullEvents           7284                       # Number of times rename has blocked due to IQ full
system.switch_cpus.rename.LSQFullEvents       1314425                       # Number of times rename has blocked due to LSQ full
system.switch_cpus.rename.FullRegisterEvents        26621                       # Number of times there has been no free registers
system.switch_cpus.rename.RenamedOperands    272721166                       # Number of destination operands rename has renamed
system.switch_cpus.rename.RenameLookups     440281562                       # Number of register rename lookups that rename has made
system.switch_cpus.rename.int_rename_lookups    440281398                       # Number of integer rename lookups
system.switch_cpus.rename.fp_rename_lookups          164                       # Number of floating rename lookups
system.switch_cpus.rename.CommittedMaps     269062385                       # Number of HB maps that are committed
system.switch_cpus.rename.UndoneMaps          3658717                       # Number of HB maps that are undone due to squashing
system.switch_cpus.rename.serializingInsts            0                       # count of serializing insts renamed
system.switch_cpus.rename.tempSerializingInsts            0                       # count of temporary serializing insts renamed
system.switch_cpus.rename.skidInsts          10906465                       # count of insts added to the skid buffer
system.switch_cpus.memDep0.insertedLoads     28811498                       # Number of loads inserted to the mem dependence unit.
system.switch_cpus.memDep0.insertedStores      4598017                       # Number of stores inserted to the mem dependence unit.
system.switch_cpus.memDep0.conflictingLoads         4809                       # Number of conflicting loads.
system.switch_cpus.memDep0.conflictingStores            0                       # Number of conflicting stores.
system.switch_cpus.iq.iqInstsAdded          180063396                       # Number of instructions added to the IQ (excludes non-spec)
system.switch_cpus.iq.iqInstsIssued         179621023                       # Number of instructions issued
system.switch_cpus.iq.iqSquashedInstsIssued         4053                       # Number of squashed instructions issued
system.switch_cpus.iq.iqSquashedInstsExamined      1913883                       # Number of squashed instructions iterated over during squash; mainly for profiling
system.switch_cpus.iq.iqSquashedOperandsExamined      2220252                       # Number of squashed operands that are examined and possibly removed from graph
system.switch_cpus.iq.issued_per_cycle::samples     53439208                       # Number of insts issued each cycle
system.switch_cpus.iq.issued_per_cycle::mean     3.361222                       # Number of insts issued each cycle
system.switch_cpus.iq.issued_per_cycle::stdev     1.786508                       # Number of insts issued each cycle
system.switch_cpus.iq.issued_per_cycle::underflows            0      0.00%      0.00% # Number of insts issued each cycle
system.switch_cpus.iq.issued_per_cycle::0      3767605      7.05%      7.05% # Number of insts issued each cycle
system.switch_cpus.iq.issued_per_cycle::1      7018297     13.13%     20.18% # Number of insts issued each cycle
system.switch_cpus.iq.issued_per_cycle::2      6018272     11.26%     31.45% # Number of insts issued each cycle
system.switch_cpus.iq.issued_per_cycle::3      7713022     14.43%     45.88% # Number of insts issued each cycle
system.switch_cpus.iq.issued_per_cycle::4     13582953     25.42%     71.30% # Number of insts issued each cycle
system.switch_cpus.iq.issued_per_cycle::5     10232679     19.15%     90.44% # Number of insts issued each cycle
system.switch_cpus.iq.issued_per_cycle::6      3814528      7.14%     97.58% # Number of insts issued each cycle
system.switch_cpus.iq.issued_per_cycle::7      1290075      2.41%    100.00% # Number of insts issued each cycle
system.switch_cpus.iq.issued_per_cycle::8         1777      0.00%    100.00% # Number of insts issued each cycle
system.switch_cpus.iq.issued_per_cycle::overflows            0      0.00%    100.00% # Number of insts issued each cycle
system.switch_cpus.iq.issued_per_cycle::min_value            0                       # Number of insts issued each cycle
system.switch_cpus.iq.issued_per_cycle::max_value            8                       # Number of insts issued each cycle
system.switch_cpus.iq.issued_per_cycle::total     53439208                       # Number of insts issued each cycle
system.switch_cpus.iq.fu_full::No_OpClass            0      0.00%      0.00% # attempts to use FU when none available
system.switch_cpus.iq.fu_full::IntAlu          477702     98.85%     98.85% # attempts to use FU when none available
system.switch_cpus.iq.fu_full::IntMult              0      0.00%     98.85% # attempts to use FU when none available
system.switch_cpus.iq.fu_full::IntDiv               0      0.00%     98.85% # attempts to use FU when none available
system.switch_cpus.iq.fu_full::FloatAdd             0      0.00%     98.85% # attempts to use FU when none available
system.switch_cpus.iq.fu_full::FloatCmp             0      0.00%     98.85% # attempts to use FU when none available
system.switch_cpus.iq.fu_full::FloatCvt             0      0.00%     98.85% # attempts to use FU when none available
system.switch_cpus.iq.fu_full::FloatMult            0      0.00%     98.85% # attempts to use FU when none available
system.switch_cpus.iq.fu_full::FloatDiv             0      0.00%     98.85% # attempts to use FU when none available
system.switch_cpus.iq.fu_full::FloatSqrt            0      0.00%     98.85% # attempts to use FU when none available
system.switch_cpus.iq.fu_full::SimdAdd              0      0.00%     98.85% # attempts to use FU when none available
system.switch_cpus.iq.fu_full::SimdAddAcc            0      0.00%     98.85% # attempts to use FU when none available
system.switch_cpus.iq.fu_full::SimdAlu              0      0.00%     98.85% # attempts to use FU when none available
system.switch_cpus.iq.fu_full::SimdCmp              0      0.00%     98.85% # attempts to use FU when none available
system.switch_cpus.iq.fu_full::SimdCvt              0      0.00%     98.85% # attempts to use FU when none available
system.switch_cpus.iq.fu_full::SimdMisc             0      0.00%     98.85% # attempts to use FU when none available
system.switch_cpus.iq.fu_full::SimdMult             0      0.00%     98.85% # attempts to use FU when none available
system.switch_cpus.iq.fu_full::SimdMultAcc            0      0.00%     98.85% # attempts to use FU when none available
system.switch_cpus.iq.fu_full::SimdShift            0      0.00%     98.85% # attempts to use FU when none available
system.switch_cpus.iq.fu_full::SimdShiftAcc            0      0.00%     98.85% # attempts to use FU when none available
system.switch_cpus.iq.fu_full::SimdSqrt             0      0.00%     98.85% # attempts to use FU when none available
system.switch_cpus.iq.fu_full::SimdFloatAdd            0      0.00%     98.85% # attempts to use FU when none available
system.switch_cpus.iq.fu_full::SimdFloatAlu            0      0.00%     98.85% # attempts to use FU when none available
system.switch_cpus.iq.fu_full::SimdFloatCmp            0      0.00%     98.85% # attempts to use FU when none available
system.switch_cpus.iq.fu_full::SimdFloatCvt            0      0.00%     98.85% # attempts to use FU when none available
system.switch_cpus.iq.fu_full::SimdFloatDiv            0      0.00%     98.85% # attempts to use FU when none available
system.switch_cpus.iq.fu_full::SimdFloatMisc            0      0.00%     98.85% # attempts to use FU when none available
system.switch_cpus.iq.fu_full::SimdFloatMult            0      0.00%     98.85% # attempts to use FU when none available
system.switch_cpus.iq.fu_full::SimdFloatMultAcc            0      0.00%     98.85% # attempts to use FU when none available
system.switch_cpus.iq.fu_full::SimdFloatSqrt            0      0.00%     98.85% # attempts to use FU when none available
system.switch_cpus.iq.fu_full::MemRead            671      0.14%     98.99% # attempts to use FU when none available
system.switch_cpus.iq.fu_full::MemWrite          4904      1.01%    100.00% # attempts to use FU when none available
system.switch_cpus.iq.fu_full::IprAccess            0      0.00%    100.00% # attempts to use FU when none available
system.switch_cpus.iq.fu_full::InstPrefetch            0      0.00%    100.00% # attempts to use FU when none available
system.switch_cpus.iq.FU_type_0::No_OpClass         6510      0.00%      0.00% # Type of FU issued
system.switch_cpus.iq.FU_type_0::IntAlu     146251465     81.42%     81.43% # Type of FU issued
system.switch_cpus.iq.FU_type_0::IntMult            0      0.00%     81.43% # Type of FU issued
system.switch_cpus.iq.FU_type_0::IntDiv             0      0.00%     81.43% # Type of FU issued
system.switch_cpus.iq.FU_type_0::FloatAdd           22      0.00%     81.43% # Type of FU issued
system.switch_cpus.iq.FU_type_0::FloatCmp            0      0.00%     81.43% # Type of FU issued
system.switch_cpus.iq.FU_type_0::FloatCvt            0      0.00%     81.43% # Type of FU issued
system.switch_cpus.iq.FU_type_0::FloatMult            0      0.00%     81.43% # Type of FU issued
system.switch_cpus.iq.FU_type_0::FloatDiv            0      0.00%     81.43% # Type of FU issued
system.switch_cpus.iq.FU_type_0::FloatSqrt            0      0.00%     81.43% # Type of FU issued
system.switch_cpus.iq.FU_type_0::SimdAdd            0      0.00%     81.43% # Type of FU issued
system.switch_cpus.iq.FU_type_0::SimdAddAcc            0      0.00%     81.43% # Type of FU issued
system.switch_cpus.iq.FU_type_0::SimdAlu            0      0.00%     81.43% # Type of FU issued
system.switch_cpus.iq.FU_type_0::SimdCmp            0      0.00%     81.43% # Type of FU issued
system.switch_cpus.iq.FU_type_0::SimdCvt            0      0.00%     81.43% # Type of FU issued
system.switch_cpus.iq.FU_type_0::SimdMisc            0      0.00%     81.43% # Type of FU issued
system.switch_cpus.iq.FU_type_0::SimdMult            0      0.00%     81.43% # Type of FU issued
system.switch_cpus.iq.FU_type_0::SimdMultAcc            0      0.00%     81.43% # Type of FU issued
system.switch_cpus.iq.FU_type_0::SimdShift            0      0.00%     81.43% # Type of FU issued
system.switch_cpus.iq.FU_type_0::SimdShiftAcc            0      0.00%     81.43% # Type of FU issued
system.switch_cpus.iq.FU_type_0::SimdSqrt            0      0.00%     81.43% # Type of FU issued
system.switch_cpus.iq.FU_type_0::SimdFloatAdd            0      0.00%     81.43% # Type of FU issued
system.switch_cpus.iq.FU_type_0::SimdFloatAlu            0      0.00%     81.43% # Type of FU issued
system.switch_cpus.iq.FU_type_0::SimdFloatCmp            0      0.00%     81.43% # Type of FU issued
system.switch_cpus.iq.FU_type_0::SimdFloatCvt            0      0.00%     81.43% # Type of FU issued
system.switch_cpus.iq.FU_type_0::SimdFloatDiv            0      0.00%     81.43% # Type of FU issued
system.switch_cpus.iq.FU_type_0::SimdFloatMisc            0      0.00%     81.43% # Type of FU issued
system.switch_cpus.iq.FU_type_0::SimdFloatMult            0      0.00%     81.43% # Type of FU issued
system.switch_cpus.iq.FU_type_0::SimdFloatMultAcc            0      0.00%     81.43% # Type of FU issued
system.switch_cpus.iq.FU_type_0::SimdFloatSqrt            0      0.00%     81.43% # Type of FU issued
system.switch_cpus.iq.FU_type_0::MemRead     28787402     16.03%     97.45% # Type of FU issued
system.switch_cpus.iq.FU_type_0::MemWrite      4575624      2.55%    100.00% # Type of FU issued
system.switch_cpus.iq.FU_type_0::IprAccess            0      0.00%    100.00% # Type of FU issued
system.switch_cpus.iq.FU_type_0::InstPrefetch            0      0.00%    100.00% # Type of FU issued
system.switch_cpus.iq.FU_type_0::total      179621023                       # Type of FU issued
system.switch_cpus.iq.rate                   3.137274                       # Inst issue rate
system.switch_cpus.iq.fu_busy_cnt              483277                       # FU busy when requested
system.switch_cpus.iq.fu_busy_rate           0.002691                       # FU busy rate (busy events/executed inst)
system.switch_cpus.iq.int_inst_queue_reads    413168484                       # Number of integer instruction queue reads
system.switch_cpus.iq.int_inst_queue_writes    181977190                       # Number of integer instruction queue writes
system.switch_cpus.iq.int_inst_queue_wakeup_accesses    179390159                       # Number of integer instruction queue wakeup accesses
system.switch_cpus.iq.fp_inst_queue_reads           94                       # Number of floating instruction queue reads
system.switch_cpus.iq.fp_inst_queue_writes          126                       # Number of floating instruction queue writes
system.switch_cpus.iq.fp_inst_queue_wakeup_accesses           26                       # Number of floating instruction queue wakeup accesses
system.switch_cpus.iq.int_alu_accesses      180097744                       # Number of integer alu accesses
system.switch_cpus.iq.fp_alu_accesses              46                       # Number of floating point alu accesses
system.switch_cpus.iew.lsq.thread0.forwLoads       263585                       # Number of loads that had data forwarded from stores
system.switch_cpus.iew.lsq.thread0.invAddrLoads            0                       # Number of loads ignored due to an invalid address
system.switch_cpus.iew.lsq.thread0.squashedLoads       273632                       # Number of loads squashed
system.switch_cpus.iew.lsq.thread0.ignoredResponses          213                       # Number of memory responses ignored because the instruction is squashed
system.switch_cpus.iew.lsq.thread0.memOrderViolation           37                       # Number of memory ordering violations
system.switch_cpus.iew.lsq.thread0.squashedStores        47255                       # Number of stores squashed
system.switch_cpus.iew.lsq.thread0.invAddrSwpfs            0                       # Number of software prefetches ignored due to an invalid address
system.switch_cpus.iew.lsq.thread0.blockedLoads            0                       # Number of blocked loads due to partial load-store forwarding
system.switch_cpus.iew.lsq.thread0.rescheduledLoads            0                       # Number of loads that were rescheduled
system.switch_cpus.iew.lsq.thread0.cacheBlocked            0                       # Number of times an access to memory failed due to the cache being blocked
system.switch_cpus.iew.iewIdleCycles                0                       # Number of cycles IEW is idle
system.switch_cpus.iew.iewSquashCycles         271836                       # Number of cycles IEW is squashing
system.switch_cpus.iew.iewBlockCycles               3                       # Number of cycles IEW is blocking
system.switch_cpus.iew.iewUnblockCycles             5                       # Number of cycles IEW is unblocking
system.switch_cpus.iew.iewDispatchedInsts    180063396                       # Number of instructions dispatched to IQ
system.switch_cpus.iew.iewDispSquashedInsts          198                       # Number of squashed instructions skipped by dispatch
system.switch_cpus.iew.iewDispLoadInsts      28811498                       # Number of dispatched load instructions
system.switch_cpus.iew.iewDispStoreInsts      4598017                       # Number of dispatched store instructions
system.switch_cpus.iew.iewDispNonSpecInsts            0                       # Number of dispatched non-speculative instructions
system.switch_cpus.iew.iewIQFullEvents              5                       # Number of times the IQ has become full, causing a stall
system.switch_cpus.iew.iewLSQFullEvents             0                       # Number of times the LSQ has become full, causing a stall
system.switch_cpus.iew.memOrderViolationEvents           37                       # Number of memory order violations
system.switch_cpus.iew.predictedTakenIncorrect        61282                       # Number of branches that were predicted taken incorrectly
system.switch_cpus.iew.predictedNotTakenIncorrect         6963                       # Number of branches that were predicted not taken incorrectly
system.switch_cpus.iew.branchMispredicts        68245                       # Number of branch mispredicts detected at execute
system.switch_cpus.iew.iewExecutedInsts     179489715                       # Number of executed instructions
system.switch_cpus.iew.iewExecLoadInsts      28768345                       # Number of load instructions executed
system.switch_cpus.iew.iewExecSquashedInsts       131302                       # Number of squashed instructions skipped in execute
system.switch_cpus.iew.exec_swp                     0                       # number of swp insts executed
system.switch_cpus.iew.exec_nop                     0                       # number of nop insts executed
system.switch_cpus.iew.exec_refs             33338106                       # number of memory reference insts executed
system.switch_cpus.iew.exec_branches         17275887                       # Number of branches executed
system.switch_cpus.iew.exec_stores            4569761                       # Number of stores executed
system.switch_cpus.iew.exec_rate             3.134981                       # Inst execution rate
system.switch_cpus.iew.wb_sent              179401008                       # cumulative count of insts sent to commit
system.switch_cpus.iew.wb_count             179390185                       # cumulative count of insts written-back
system.switch_cpus.iew.wb_producers         155064803                       # num instructions producing a value
system.switch_cpus.iew.wb_consumers         208455450                       # num instructions consuming a value
system.switch_cpus.iew.wb_penalized                 0                       # number of instrctions required to write to 'other' IQ
system.switch_cpus.iew.wb_rate               3.133242                       # insts written-back per cycle
system.switch_cpus.iew.wb_fanout             0.743875                       # average fanout of values written-back
system.switch_cpus.iew.wb_penalized_rate            0                       # fraction of instructions written-back that wrote to 'other' IQ
system.switch_cpus.commit.commitSquashedInsts      1915821                       # The number of squashed insts skipped by commit
system.switch_cpus.commit.branchMispredicts        66001                       # The number of times a branch was mispredicted
system.switch_cpus.commit.committed_per_cycle::samples     53167372                       # Number of insts commited each cycle
system.switch_cpus.commit.committed_per_cycle::mean     3.350693                       # Number of insts commited each cycle
system.switch_cpus.commit.committed_per_cycle::stdev     2.985960                       # Number of insts commited each cycle
system.switch_cpus.commit.committed_per_cycle::underflows            0      0.00%      0.00% # Number of insts commited each cycle
system.switch_cpus.commit.committed_per_cycle::0      9831230     18.49%     18.49% # Number of insts commited each cycle
system.switch_cpus.commit.committed_per_cycle::1     14044384     26.42%     44.91% # Number of insts commited each cycle
system.switch_cpus.commit.committed_per_cycle::2      1931389      3.63%     48.54% # Number of insts commited each cycle
system.switch_cpus.commit.committed_per_cycle::3      7364753     13.85%     62.39% # Number of insts commited each cycle
system.switch_cpus.commit.committed_per_cycle::4       385028      0.72%     63.12% # Number of insts commited each cycle
system.switch_cpus.commit.committed_per_cycle::5      2374232      4.47%     67.58% # Number of insts commited each cycle
system.switch_cpus.commit.committed_per_cycle::6      5800021     10.91%     78.49% # Number of insts commited each cycle
system.switch_cpus.commit.committed_per_cycle::7      1555959      2.93%     81.42% # Number of insts commited each cycle
system.switch_cpus.commit.committed_per_cycle::8      9880376     18.58%    100.00% # Number of insts commited each cycle
system.switch_cpus.commit.committed_per_cycle::overflows            0      0.00%    100.00% # Number of insts commited each cycle
system.switch_cpus.commit.committed_per_cycle::min_value            0                       # Number of insts commited each cycle
system.switch_cpus.commit.committed_per_cycle::max_value            8                       # Number of insts commited each cycle
system.switch_cpus.commit.committed_per_cycle::total     53167372                       # Number of insts commited each cycle
system.switch_cpus.commit.committedInsts    100000003                       # Number of instructions committed
system.switch_cpus.commit.committedOps      178147540                       # Number of ops (including micro ops) committed
system.switch_cpus.commit.swp_count                 0                       # Number of s/w prefetches committed
system.switch_cpus.commit.refs               33088622                       # Number of memory references committed
system.switch_cpus.commit.loads              28537860                       # Number of loads committed
system.switch_cpus.commit.membars                   0                       # Number of memory barriers committed
system.switch_cpus.commit.branches           17214095                       # Number of branches committed
system.switch_cpus.commit.fp_insts                  0                       # Number of committed floating point instructions.
system.switch_cpus.commit.int_insts         178142918                       # Number of committed integer instructions.
system.switch_cpus.commit.function_calls            0                       # Number of function calls committed.
system.switch_cpus.commit.bw_lim_events       9880376                       # number cycles where commit BW limit reached
system.switch_cpus.commit.bw_limited                0                       # number of insts not committed due to BW limits
system.switch_cpus.rob.rob_reads            223350357                       # The number of ROB reads
system.switch_cpus.rob.rob_writes           360398636                       # The number of ROB writes
system.switch_cpus.timesIdled                     177                       # Number of times that the entire CPU went into an idle state and unscheduled itself
system.switch_cpus.idleCycles                 3814642                       # Total number of cycles that the CPU has spent unscheduled due to idling
system.switch_cpus.committedInsts           100000003                       # Number of Instructions Simulated
system.switch_cpus.committedOps             178147540                       # Number of Ops (including micro ops) Simulated
system.switch_cpus.committedInsts_total     100000003                       # Number of Instructions Simulated
system.switch_cpus.cpi                       0.572538                       # CPI: Cycles Per Instruction
system.switch_cpus.cpi_total                 0.572538                       # CPI: Total CPI of All Threads
system.switch_cpus.ipc                       1.746607                       # IPC: Instructions Per Cycle
system.switch_cpus.ipc_total                 1.746607                       # IPC: Total IPC of All Threads
system.switch_cpus.int_regfile_reads        368797589                       # number of integer regfile reads
system.switch_cpus.int_regfile_writes       270842127                       # number of integer regfile writes
system.switch_cpus.fp_regfile_reads                22                       # number of floating regfile reads
system.switch_cpus.fp_regfile_writes               64                       # number of floating regfile writes
system.switch_cpus.misc_regfile_reads        67922670                       # number of misc regfile reads
system.l2.replacements                              0                       # number of replacements
system.l2.tagsinuse                        585.437576                       # Cycle average of tags in use
system.l2.total_refs                                0                       # Total number of references to valid blocks.
system.l2.sampled_refs                            627                       # Sample count of references to valid blocks.
system.l2.avg_refs                                  0                       # Average number of references to valid blocks.
system.l2.warmup_cycle                              0                       # Cycle when the warmup percentage was hit.
system.l2.occ_blocks::switch_cpus.inst      86.452513                       # Average occupied blocks per requestor
system.l2.occ_blocks::switch_cpus.data     494.985063                       # Average occupied blocks per requestor
system.l2.occ_blocks::cpu.inst               2.000000                       # Average occupied blocks per requestor
system.l2.occ_blocks::cpu.data               2.000000                       # Average occupied blocks per requestor
system.l2.occ_percent::switch_cpus.inst      0.002638                       # Average percentage of cache occupancy
system.l2.occ_percent::switch_cpus.data      0.015106                       # Average percentage of cache occupancy
system.l2.occ_percent::cpu.inst              0.000061                       # Average percentage of cache occupancy
system.l2.occ_percent::cpu.data              0.000061                       # Average percentage of cache occupancy
system.l2.occ_percent::total                 0.017866                       # Average percentage of cache occupancy
system.l2.ReadReq_misses::switch_cpus.inst          100                       # number of ReadReq misses
system.l2.ReadReq_misses::switch_cpus.data          523                       # number of ReadReq misses
system.l2.ReadReq_misses::cpu.inst                  2                       # number of ReadReq misses
system.l2.ReadReq_misses::cpu.data                  2                       # number of ReadReq misses
system.l2.ReadReq_misses::total                   627                       # number of ReadReq misses
system.l2.ReadExReq_misses::switch_cpus.data            3                       # number of ReadExReq misses
system.l2.ReadExReq_misses::total                   3                       # number of ReadExReq misses
system.l2.demand_misses::switch_cpus.inst          100                       # number of demand (read+write) misses
system.l2.demand_misses::switch_cpus.data          526                       # number of demand (read+write) misses
system.l2.demand_misses::cpu.inst                   2                       # number of demand (read+write) misses
system.l2.demand_misses::cpu.data                   2                       # number of demand (read+write) misses
system.l2.demand_misses::total                    630                       # number of demand (read+write) misses
system.l2.overall_misses::switch_cpus.inst          100                       # number of overall misses
system.l2.overall_misses::switch_cpus.data          526                       # number of overall misses
system.l2.overall_misses::cpu.inst                  2                       # number of overall misses
system.l2.overall_misses::cpu.data                  2                       # number of overall misses
system.l2.overall_misses::total                   630                       # number of overall misses
system.l2.ReadReq_miss_latency::switch_cpus.inst   2240235000                       # number of ReadReq miss cycles
system.l2.ReadReq_miss_latency::switch_cpus.data  11716292000                       # number of ReadReq miss cycles
system.l2.ReadReq_miss_latency::total     13956527000                       # number of ReadReq miss cycles
system.l2.ReadExReq_miss_latency::switch_cpus.data     67206000                       # number of ReadExReq miss cycles
system.l2.ReadExReq_miss_latency::total      67206000                       # number of ReadExReq miss cycles
system.l2.demand_miss_latency::switch_cpus.inst   2240235000                       # number of demand (read+write) miss cycles
system.l2.demand_miss_latency::switch_cpus.data  11783498000                       # number of demand (read+write) miss cycles
system.l2.demand_miss_latency::total      14023733000                       # number of demand (read+write) miss cycles
system.l2.overall_miss_latency::switch_cpus.inst   2240235000                       # number of overall miss cycles
system.l2.overall_miss_latency::switch_cpus.data  11783498000                       # number of overall miss cycles
system.l2.overall_miss_latency::total     14023733000                       # number of overall miss cycles
system.l2.ReadReq_accesses::switch_cpus.inst          100                       # number of ReadReq accesses(hits+misses)
system.l2.ReadReq_accesses::switch_cpus.data          523                       # number of ReadReq accesses(hits+misses)
system.l2.ReadReq_accesses::cpu.inst                2                       # number of ReadReq accesses(hits+misses)
system.l2.ReadReq_accesses::cpu.data                2                       # number of ReadReq accesses(hits+misses)
system.l2.ReadReq_accesses::total                 627                       # number of ReadReq accesses(hits+misses)
system.l2.ReadExReq_accesses::switch_cpus.data            3                       # number of ReadExReq accesses(hits+misses)
system.l2.ReadExReq_accesses::total                 3                       # number of ReadExReq accesses(hits+misses)
system.l2.demand_accesses::switch_cpus.inst          100                       # number of demand (read+write) accesses
system.l2.demand_accesses::switch_cpus.data          526                       # number of demand (read+write) accesses
system.l2.demand_accesses::cpu.inst                 2                       # number of demand (read+write) accesses
system.l2.demand_accesses::cpu.data                 2                       # number of demand (read+write) accesses
system.l2.demand_accesses::total                  630                       # number of demand (read+write) accesses
system.l2.overall_accesses::switch_cpus.inst          100                       # number of overall (read+write) accesses
system.l2.overall_accesses::switch_cpus.data          526                       # number of overall (read+write) accesses
system.l2.overall_accesses::cpu.inst                2                       # number of overall (read+write) accesses
system.l2.overall_accesses::cpu.data                2                       # number of overall (read+write) accesses
system.l2.overall_accesses::total                 630                       # number of overall (read+write) accesses
system.l2.ReadReq_miss_rate::switch_cpus.inst            1                       # miss rate for ReadReq accesses
system.l2.ReadReq_miss_rate::switch_cpus.data            1                       # miss rate for ReadReq accesses
system.l2.ReadReq_miss_rate::cpu.inst               1                       # miss rate for ReadReq accesses
system.l2.ReadReq_miss_rate::cpu.data               1                       # miss rate for ReadReq accesses
system.l2.ReadReq_miss_rate::total                  1                       # miss rate for ReadReq accesses
system.l2.ReadExReq_miss_rate::switch_cpus.data            1                       # miss rate for ReadExReq accesses
system.l2.ReadExReq_miss_rate::total                1                       # miss rate for ReadExReq accesses
system.l2.demand_miss_rate::switch_cpus.inst            1                       # miss rate for demand accesses
system.l2.demand_miss_rate::switch_cpus.data            1                       # miss rate for demand accesses
system.l2.demand_miss_rate::cpu.inst                1                       # miss rate for demand accesses
system.l2.demand_miss_rate::cpu.data                1                       # miss rate for demand accesses
system.l2.demand_miss_rate::total                   1                       # miss rate for demand accesses
system.l2.overall_miss_rate::switch_cpus.inst            1                       # miss rate for overall accesses
system.l2.overall_miss_rate::switch_cpus.data            1                       # miss rate for overall accesses
system.l2.overall_miss_rate::cpu.inst               1                       # miss rate for overall accesses
system.l2.overall_miss_rate::cpu.data               1                       # miss rate for overall accesses
system.l2.overall_miss_rate::total                  1                       # miss rate for overall accesses
system.l2.ReadReq_avg_miss_latency::switch_cpus.inst     22402350                       # average ReadReq miss latency
system.l2.ReadReq_avg_miss_latency::switch_cpus.data 22402087.954111                       # average ReadReq miss latency
system.l2.ReadReq_avg_miss_latency::total 22259213.716108                       # average ReadReq miss latency
system.l2.ReadExReq_avg_miss_latency::switch_cpus.data     22402000                       # average ReadExReq miss latency
system.l2.ReadExReq_avg_miss_latency::total     22402000                       # average ReadExReq miss latency
system.l2.demand_avg_miss_latency::switch_cpus.inst     22402350                       # average overall miss latency
system.l2.demand_avg_miss_latency::switch_cpus.data 22402087.452471                       # average overall miss latency
system.l2.demand_avg_miss_latency::total 22259893.650794                       # average overall miss latency
system.l2.overall_avg_miss_latency::switch_cpus.inst     22402350                       # average overall miss latency
system.l2.overall_avg_miss_latency::switch_cpus.data 22402087.452471                       # average overall miss latency
system.l2.overall_avg_miss_latency::total 22259893.650794                       # average overall miss latency
system.l2.blocked_cycles::no_mshrs                  0                       # number of cycles access was blocked
system.l2.blocked_cycles::no_targets                0                       # number of cycles access was blocked
system.l2.blocked::no_mshrs                         0                       # number of cycles access was blocked
system.l2.blocked::no_targets                       0                       # number of cycles access was blocked
system.l2.avg_blocked_cycles::no_mshrs            nan                       # average number of cycles each access was blocked
system.l2.avg_blocked_cycles::no_targets          nan                       # average number of cycles each access was blocked
system.l2.fast_writes                               0                       # number of fast writes performed
system.l2.cache_copies                              0                       # number of cache copies performed
system.l2.ReadReq_mshr_misses::switch_cpus.inst          100                       # number of ReadReq MSHR misses
system.l2.ReadReq_mshr_misses::switch_cpus.data          523                       # number of ReadReq MSHR misses
system.l2.ReadReq_mshr_misses::total              623                       # number of ReadReq MSHR misses
system.l2.ReadExReq_mshr_misses::switch_cpus.data            3                       # number of ReadExReq MSHR misses
system.l2.ReadExReq_mshr_misses::total              3                       # number of ReadExReq MSHR misses
system.l2.demand_mshr_misses::switch_cpus.inst          100                       # number of demand (read+write) MSHR misses
system.l2.demand_mshr_misses::switch_cpus.data          526                       # number of demand (read+write) MSHR misses
system.l2.demand_mshr_misses::total               626                       # number of demand (read+write) MSHR misses
system.l2.overall_mshr_misses::switch_cpus.inst          100                       # number of overall MSHR misses
system.l2.overall_mshr_misses::switch_cpus.data          526                       # number of overall MSHR misses
system.l2.overall_mshr_misses::total              626                       # number of overall MSHR misses
system.l2.ReadReq_mshr_miss_latency::switch_cpus.inst   2239035000                       # number of ReadReq MSHR miss cycles
system.l2.ReadReq_mshr_miss_latency::switch_cpus.data  11710016000                       # number of ReadReq MSHR miss cycles
system.l2.ReadReq_mshr_miss_latency::total  13949051000                       # number of ReadReq MSHR miss cycles
system.l2.ReadExReq_mshr_miss_latency::switch_cpus.data     67170000                       # number of ReadExReq MSHR miss cycles
system.l2.ReadExReq_mshr_miss_latency::total     67170000                       # number of ReadExReq MSHR miss cycles
system.l2.demand_mshr_miss_latency::switch_cpus.inst   2239035000                       # number of demand (read+write) MSHR miss cycles
system.l2.demand_mshr_miss_latency::switch_cpus.data  11777186000                       # number of demand (read+write) MSHR miss cycles
system.l2.demand_mshr_miss_latency::total  14016221000                       # number of demand (read+write) MSHR miss cycles
system.l2.overall_mshr_miss_latency::switch_cpus.inst   2239035000                       # number of overall MSHR miss cycles
system.l2.overall_mshr_miss_latency::switch_cpus.data  11777186000                       # number of overall MSHR miss cycles
system.l2.overall_mshr_miss_latency::total  14016221000                       # number of overall MSHR miss cycles
system.l2.ReadReq_mshr_miss_rate::switch_cpus.inst            1                       # mshr miss rate for ReadReq accesses
system.l2.ReadReq_mshr_miss_rate::switch_cpus.data            1                       # mshr miss rate for ReadReq accesses
system.l2.ReadReq_mshr_miss_rate::total      0.993620                       # mshr miss rate for ReadReq accesses
system.l2.ReadExReq_mshr_miss_rate::switch_cpus.data            1                       # mshr miss rate for ReadExReq accesses
system.l2.ReadExReq_mshr_miss_rate::total            1                       # mshr miss rate for ReadExReq accesses
system.l2.demand_mshr_miss_rate::switch_cpus.inst            1                       # mshr miss rate for demand accesses
system.l2.demand_mshr_miss_rate::switch_cpus.data            1                       # mshr miss rate for demand accesses
system.l2.demand_mshr_miss_rate::total       0.993651                       # mshr miss rate for demand accesses
system.l2.overall_mshr_miss_rate::switch_cpus.inst            1                       # mshr miss rate for overall accesses
system.l2.overall_mshr_miss_rate::switch_cpus.data            1                       # mshr miss rate for overall accesses
system.l2.overall_mshr_miss_rate::total      0.993651                       # mshr miss rate for overall accesses
system.l2.ReadReq_avg_mshr_miss_latency::switch_cpus.inst     22390350                       # average ReadReq mshr miss latency
system.l2.ReadReq_avg_mshr_miss_latency::switch_cpus.data 22390087.954111                       # average ReadReq mshr miss latency
system.l2.ReadReq_avg_mshr_miss_latency::total 22390130.016051                       # average ReadReq mshr miss latency
system.l2.ReadExReq_avg_mshr_miss_latency::switch_cpus.data     22390000                       # average ReadExReq mshr miss latency
system.l2.ReadExReq_avg_mshr_miss_latency::total     22390000                       # average ReadExReq mshr miss latency
system.l2.demand_avg_mshr_miss_latency::switch_cpus.inst     22390350                       # average overall mshr miss latency
system.l2.demand_avg_mshr_miss_latency::switch_cpus.data 22390087.452471                       # average overall mshr miss latency
system.l2.demand_avg_mshr_miss_latency::total 22390129.392971                       # average overall mshr miss latency
system.l2.overall_avg_mshr_miss_latency::switch_cpus.inst     22390350                       # average overall mshr miss latency
system.l2.overall_avg_mshr_miss_latency::switch_cpus.data 22390087.452471                       # average overall mshr miss latency
system.l2.overall_avg_mshr_miss_latency::total 22390129.392971                       # average overall mshr miss latency
system.l2.no_allocate_misses                        0                       # Number of misses that were no-allocate
system.cpu.numCycles                               10                       # number of cpu cycles simulated
system.cpu.numWorkItemsStarted                      0                       # number of work items this cpu started
system.cpu.numWorkItemsCompleted                    0                       # number of work items this cpu completed
system.cpu.committedInsts                           5                       # Number of instructions committed
system.cpu.committedOps                             8                       # Number of ops (including micro ops) committed
system.cpu.num_int_alu_accesses                     8                       # Number of integer alu accesses
system.cpu.num_fp_alu_accesses                      0                       # Number of float alu accesses
system.cpu.num_func_calls                           0                       # number of times a function call or return occured
system.cpu.num_conditional_control_insts            1                       # number of instructions that are conditional controls
system.cpu.num_int_insts                            8                       # number of integer instructions
system.cpu.num_fp_insts                             0                       # number of float instructions
system.cpu.num_int_register_reads                  23                       # number of times the integer registers were read
system.cpu.num_int_register_writes                  9                       # number of times the integer registers were written
system.cpu.num_fp_register_reads                    0                       # number of times the floating registers were read
system.cpu.num_fp_register_writes                   0                       # number of times the floating registers were written
system.cpu.num_mem_refs                             2                       # number of memory refs
system.cpu.num_load_insts                           2                       # Number of load instructions
system.cpu.num_store_insts                          0                       # Number of store instructions
system.cpu.num_idle_cycles                          0                       # Number of idle cycles
system.cpu.num_busy_cycles                         10                       # Number of busy cycles
system.cpu.not_idle_fraction                        1                       # Percentage of non-idle cycles
system.cpu.idle_fraction                            0                       # Percentage of idle cycles
system.cpu.icache.replacements                      0                       # number of replacements
system.cpu.icache.tagsinuse                 88.452492                       # Cycle average of tags in use
system.cpu.icache.total_refs                 14651372                       # Total number of references to valid blocks.
system.cpu.icache.sampled_refs                    102                       # Sample count of references to valid blocks.
system.cpu.icache.avg_refs               143640.901961                       # Average number of references to valid blocks.
system.cpu.icache.warmup_cycle                      0                       # Cycle when the warmup percentage was hit.
system.cpu.icache.occ_blocks::switch_cpus.inst    86.452492                       # Average occupied blocks per requestor
system.cpu.icache.occ_blocks::cpu.inst       2.000000                       # Average occupied blocks per requestor
system.cpu.icache.occ_percent::switch_cpus.inst     0.168853                       # Average percentage of cache occupancy
system.cpu.icache.occ_percent::cpu.inst      0.003906                       # Average percentage of cache occupancy
system.cpu.icache.occ_percent::total         0.172759                       # Average percentage of cache occupancy
system.cpu.icache.ReadReq_hits::switch_cpus.inst     14651367                       # number of ReadReq hits
system.cpu.icache.ReadReq_hits::cpu.inst            5                       # number of ReadReq hits
system.cpu.icache.ReadReq_hits::total        14651372                       # number of ReadReq hits
system.cpu.icache.demand_hits::switch_cpus.inst     14651367                       # number of demand (read+write) hits
system.cpu.icache.demand_hits::cpu.inst             5                       # number of demand (read+write) hits
system.cpu.icache.demand_hits::total         14651372                       # number of demand (read+write) hits
system.cpu.icache.overall_hits::switch_cpus.inst     14651367                       # number of overall hits
system.cpu.icache.overall_hits::cpu.inst            5                       # number of overall hits
system.cpu.icache.overall_hits::total        14651372                       # number of overall hits
system.cpu.icache.ReadReq_misses::switch_cpus.inst          136                       # number of ReadReq misses
system.cpu.icache.ReadReq_misses::cpu.inst            2                       # number of ReadReq misses
system.cpu.icache.ReadReq_misses::total           138                       # number of ReadReq misses
system.cpu.icache.demand_misses::switch_cpus.inst          136                       # number of demand (read+write) misses
system.cpu.icache.demand_misses::cpu.inst            2                       # number of demand (read+write) misses
system.cpu.icache.demand_misses::total            138                       # number of demand (read+write) misses
system.cpu.icache.overall_misses::switch_cpus.inst          136                       # number of overall misses
system.cpu.icache.overall_misses::cpu.inst            2                       # number of overall misses
system.cpu.icache.overall_misses::total           138                       # number of overall misses
system.cpu.icache.ReadReq_miss_latency::switch_cpus.inst   2840047000                       # number of ReadReq miss cycles
system.cpu.icache.ReadReq_miss_latency::total   2840047000                       # number of ReadReq miss cycles
system.cpu.icache.demand_miss_latency::switch_cpus.inst   2840047000                       # number of demand (read+write) miss cycles
system.cpu.icache.demand_miss_latency::total   2840047000                       # number of demand (read+write) miss cycles
system.cpu.icache.overall_miss_latency::switch_cpus.inst   2840047000                       # number of overall miss cycles
system.cpu.icache.overall_miss_latency::total   2840047000                       # number of overall miss cycles
system.cpu.icache.ReadReq_accesses::switch_cpus.inst     14651503                       # number of ReadReq accesses(hits+misses)
system.cpu.icache.ReadReq_accesses::cpu.inst            7                       # number of ReadReq accesses(hits+misses)
system.cpu.icache.ReadReq_accesses::total     14651510                       # number of ReadReq accesses(hits+misses)
system.cpu.icache.demand_accesses::switch_cpus.inst     14651503                       # number of demand (read+write) accesses
system.cpu.icache.demand_accesses::cpu.inst            7                       # number of demand (read+write) accesses
system.cpu.icache.demand_accesses::total     14651510                       # number of demand (read+write) accesses
system.cpu.icache.overall_accesses::switch_cpus.inst     14651503                       # number of overall (read+write) accesses
system.cpu.icache.overall_accesses::cpu.inst            7                       # number of overall (read+write) accesses
system.cpu.icache.overall_accesses::total     14651510                       # number of overall (read+write) accesses
system.cpu.icache.ReadReq_miss_rate::switch_cpus.inst     0.000009                       # miss rate for ReadReq accesses
system.cpu.icache.ReadReq_miss_rate::cpu.inst     0.285714                       # miss rate for ReadReq accesses
system.cpu.icache.ReadReq_miss_rate::total     0.000009                       # miss rate for ReadReq accesses
system.cpu.icache.demand_miss_rate::switch_cpus.inst     0.000009                       # miss rate for demand accesses
system.cpu.icache.demand_miss_rate::cpu.inst     0.285714                       # miss rate for demand accesses
system.cpu.icache.demand_miss_rate::total     0.000009                       # miss rate for demand accesses
system.cpu.icache.overall_miss_rate::switch_cpus.inst     0.000009                       # miss rate for overall accesses
system.cpu.icache.overall_miss_rate::cpu.inst     0.285714                       # miss rate for overall accesses
system.cpu.icache.overall_miss_rate::total     0.000009                       # miss rate for overall accesses
system.cpu.icache.ReadReq_avg_miss_latency::switch_cpus.inst 20882698.529412                       # average ReadReq miss latency
system.cpu.icache.ReadReq_avg_miss_latency::total 20580050.724638                       # average ReadReq miss latency
system.cpu.icache.demand_avg_miss_latency::switch_cpus.inst 20882698.529412                       # average overall miss latency
system.cpu.icache.demand_avg_miss_latency::total 20580050.724638                       # average overall miss latency
system.cpu.icache.overall_avg_miss_latency::switch_cpus.inst 20882698.529412                       # average overall miss latency
system.cpu.icache.overall_avg_miss_latency::total 20580050.724638                       # average overall miss latency
system.cpu.icache.blocked_cycles::no_mshrs        16088                       # number of cycles access was blocked
system.cpu.icache.blocked_cycles::no_targets            0                       # number of cycles access was blocked
system.cpu.icache.blocked::no_mshrs                 1                       # number of cycles access was blocked
system.cpu.icache.blocked::no_targets               0                       # number of cycles access was blocked
system.cpu.icache.avg_blocked_cycles::no_mshrs        16088                       # average number of cycles each access was blocked
system.cpu.icache.avg_blocked_cycles::no_targets          nan                       # average number of cycles each access was blocked
system.cpu.icache.fast_writes                       0                       # number of fast writes performed
system.cpu.icache.cache_copies                      0                       # number of cache copies performed
system.cpu.icache.ReadReq_mshr_hits::switch_cpus.inst           36                       # number of ReadReq MSHR hits
system.cpu.icache.ReadReq_mshr_hits::total           36                       # number of ReadReq MSHR hits
system.cpu.icache.demand_mshr_hits::switch_cpus.inst           36                       # number of demand (read+write) MSHR hits
system.cpu.icache.demand_mshr_hits::total           36                       # number of demand (read+write) MSHR hits
system.cpu.icache.overall_mshr_hits::switch_cpus.inst           36                       # number of overall MSHR hits
system.cpu.icache.overall_mshr_hits::total           36                       # number of overall MSHR hits
system.cpu.icache.ReadReq_mshr_misses::switch_cpus.inst          100                       # number of ReadReq MSHR misses
system.cpu.icache.ReadReq_mshr_misses::total          100                       # number of ReadReq MSHR misses
system.cpu.icache.demand_mshr_misses::switch_cpus.inst          100                       # number of demand (read+write) MSHR misses
system.cpu.icache.demand_mshr_misses::total          100                       # number of demand (read+write) MSHR misses
system.cpu.icache.overall_mshr_misses::switch_cpus.inst          100                       # number of overall MSHR misses
system.cpu.icache.overall_mshr_misses::total          100                       # number of overall MSHR misses
system.cpu.icache.ReadReq_mshr_miss_latency::switch_cpus.inst   2240435000                       # number of ReadReq MSHR miss cycles
system.cpu.icache.ReadReq_mshr_miss_latency::total   2240435000                       # number of ReadReq MSHR miss cycles
system.cpu.icache.demand_mshr_miss_latency::switch_cpus.inst   2240435000                       # number of demand (read+write) MSHR miss cycles
system.cpu.icache.demand_mshr_miss_latency::total   2240435000                       # number of demand (read+write) MSHR miss cycles
system.cpu.icache.overall_mshr_miss_latency::switch_cpus.inst   2240435000                       # number of overall MSHR miss cycles
system.cpu.icache.overall_mshr_miss_latency::total   2240435000                       # number of overall MSHR miss cycles
system.cpu.icache.ReadReq_mshr_miss_rate::switch_cpus.inst     0.000007                       # mshr miss rate for ReadReq accesses
system.cpu.icache.ReadReq_mshr_miss_rate::total     0.000007                       # mshr miss rate for ReadReq accesses
system.cpu.icache.demand_mshr_miss_rate::switch_cpus.inst     0.000007                       # mshr miss rate for demand accesses
system.cpu.icache.demand_mshr_miss_rate::total     0.000007                       # mshr miss rate for demand accesses
system.cpu.icache.overall_mshr_miss_rate::switch_cpus.inst     0.000007                       # mshr miss rate for overall accesses
system.cpu.icache.overall_mshr_miss_rate::total     0.000007                       # mshr miss rate for overall accesses
system.cpu.icache.ReadReq_avg_mshr_miss_latency::switch_cpus.inst     22404350                       # average ReadReq mshr miss latency
system.cpu.icache.ReadReq_avg_mshr_miss_latency::total     22404350                       # average ReadReq mshr miss latency
system.cpu.icache.demand_avg_mshr_miss_latency::switch_cpus.inst     22404350                       # average overall mshr miss latency
system.cpu.icache.demand_avg_mshr_miss_latency::total     22404350                       # average overall mshr miss latency
system.cpu.icache.overall_avg_mshr_miss_latency::switch_cpus.inst     22404350                       # average overall mshr miss latency
system.cpu.icache.overall_avg_mshr_miss_latency::total     22404350                       # average overall mshr miss latency
system.cpu.icache.no_allocate_misses                0                       # Number of misses that were no-allocate
system.cpu.itb_walker_cache.replacements            0                       # number of replacements
system.cpu.itb_walker_cache.tagsinuse               0                       # Cycle average of tags in use
system.cpu.itb_walker_cache.total_refs              0                       # Total number of references to valid blocks.
system.cpu.itb_walker_cache.sampled_refs            0                       # Sample count of references to valid blocks.
system.cpu.itb_walker_cache.avg_refs              nan                       # Average number of references to valid blocks.
system.cpu.itb_walker_cache.warmup_cycle            0                       # Cycle when the warmup percentage was hit.
system.cpu.itb_walker_cache.blocked_cycles::no_mshrs            0                       # number of cycles access was blocked
system.cpu.itb_walker_cache.blocked_cycles::no_targets            0                       # number of cycles access was blocked
system.cpu.itb_walker_cache.blocked::no_mshrs            0                       # number of cycles access was blocked
system.cpu.itb_walker_cache.blocked::no_targets            0                       # number of cycles access was blocked
system.cpu.itb_walker_cache.avg_blocked_cycles::no_mshrs          nan                       # average number of cycles each access was blocked
system.cpu.itb_walker_cache.avg_blocked_cycles::no_targets          nan                       # average number of cycles each access was blocked
system.cpu.itb_walker_cache.fast_writes             0                       # number of fast writes performed
system.cpu.itb_walker_cache.cache_copies            0                       # number of cache copies performed
system.cpu.itb_walker_cache.no_allocate_misses            0                       # Number of misses that were no-allocate
system.cpu.dtb_walker_cache.replacements            0                       # number of replacements
system.cpu.dtb_walker_cache.tagsinuse               0                       # Cycle average of tags in use
system.cpu.dtb_walker_cache.total_refs              0                       # Total number of references to valid blocks.
system.cpu.dtb_walker_cache.sampled_refs            0                       # Sample count of references to valid blocks.
system.cpu.dtb_walker_cache.avg_refs              nan                       # Average number of references to valid blocks.
system.cpu.dtb_walker_cache.warmup_cycle            0                       # Cycle when the warmup percentage was hit.
system.cpu.dtb_walker_cache.blocked_cycles::no_mshrs            0                       # number of cycles access was blocked
system.cpu.dtb_walker_cache.blocked_cycles::no_targets            0                       # number of cycles access was blocked
system.cpu.dtb_walker_cache.blocked::no_mshrs            0                       # number of cycles access was blocked
system.cpu.dtb_walker_cache.blocked::no_targets            0                       # number of cycles access was blocked
system.cpu.dtb_walker_cache.avg_blocked_cycles::no_mshrs          nan                       # average number of cycles each access was blocked
system.cpu.dtb_walker_cache.avg_blocked_cycles::no_targets          nan                       # average number of cycles each access was blocked
system.cpu.dtb_walker_cache.fast_writes             0                       # number of fast writes performed
system.cpu.dtb_walker_cache.cache_copies            0                       # number of cache copies performed
system.cpu.dtb_walker_cache.no_allocate_misses            0                       # Number of misses that were no-allocate
system.cpu.dcache.replacements                      0                       # number of replacements
system.cpu.dcache.tagsinuse                499.819646                       # Cycle average of tags in use
system.cpu.dcache.total_refs                 33053271                       # Total number of references to valid blocks.
system.cpu.dcache.sampled_refs                    528                       # Sample count of references to valid blocks.
system.cpu.dcache.avg_refs               62600.892045                       # Average number of references to valid blocks.
system.cpu.dcache.warmup_cycle                      0                       # Cycle when the warmup percentage was hit.
system.cpu.dcache.occ_blocks::switch_cpus.data   497.819646                       # Average occupied blocks per requestor
system.cpu.dcache.occ_blocks::cpu.data       2.000000                       # Average occupied blocks per requestor
system.cpu.dcache.occ_percent::switch_cpus.data     0.486152                       # Average percentage of cache occupancy
system.cpu.dcache.occ_percent::cpu.data      0.001953                       # Average percentage of cache occupancy
system.cpu.dcache.occ_percent::total         0.488105                       # Average percentage of cache occupancy
system.cpu.dcache.ReadReq_hits::switch_cpus.data     28502513                       # number of ReadReq hits
system.cpu.dcache.ReadReq_hits::total        28502513                       # number of ReadReq hits
system.cpu.dcache.WriteReq_hits::switch_cpus.data      4550758                       # number of WriteReq hits
system.cpu.dcache.WriteReq_hits::total        4550758                       # number of WriteReq hits
system.cpu.dcache.demand_hits::switch_cpus.data     33053271                       # number of demand (read+write) hits
system.cpu.dcache.demand_hits::total         33053271                       # number of demand (read+write) hits
system.cpu.dcache.overall_hits::switch_cpus.data     33053271                       # number of overall hits
system.cpu.dcache.overall_hits::total        33053271                       # number of overall hits
system.cpu.dcache.ReadReq_misses::switch_cpus.data         2077                       # number of ReadReq misses
system.cpu.dcache.ReadReq_misses::cpu.data            2                       # number of ReadReq misses
system.cpu.dcache.ReadReq_misses::total          2079                       # number of ReadReq misses
system.cpu.dcache.WriteReq_misses::switch_cpus.data            3                       # number of WriteReq misses
system.cpu.dcache.WriteReq_misses::total            3                       # number of WriteReq misses
system.cpu.dcache.demand_misses::switch_cpus.data         2080                       # number of demand (read+write) misses
system.cpu.dcache.demand_misses::cpu.data            2                       # number of demand (read+write) misses
system.cpu.dcache.demand_misses::total           2082                       # number of demand (read+write) misses
system.cpu.dcache.overall_misses::switch_cpus.data         2080                       # number of overall misses
system.cpu.dcache.overall_misses::cpu.data            2                       # number of overall misses
system.cpu.dcache.overall_misses::total          2082                       # number of overall misses
system.cpu.dcache.ReadReq_miss_latency::switch_cpus.data  46493124000                       # number of ReadReq miss cycles
system.cpu.dcache.ReadReq_miss_latency::total  46493124000                       # number of ReadReq miss cycles
system.cpu.dcache.WriteReq_miss_latency::switch_cpus.data     67221000                       # number of WriteReq miss cycles
system.cpu.dcache.WriteReq_miss_latency::total     67221000                       # number of WriteReq miss cycles
system.cpu.dcache.demand_miss_latency::switch_cpus.data  46560345000                       # number of demand (read+write) miss cycles
system.cpu.dcache.demand_miss_latency::total  46560345000                       # number of demand (read+write) miss cycles
system.cpu.dcache.overall_miss_latency::switch_cpus.data  46560345000                       # number of overall miss cycles
system.cpu.dcache.overall_miss_latency::total  46560345000                       # number of overall miss cycles
system.cpu.dcache.ReadReq_accesses::switch_cpus.data     28504590                       # number of ReadReq accesses(hits+misses)
system.cpu.dcache.ReadReq_accesses::cpu.data            2                       # number of ReadReq accesses(hits+misses)
system.cpu.dcache.ReadReq_accesses::total     28504592                       # number of ReadReq accesses(hits+misses)
system.cpu.dcache.WriteReq_accesses::switch_cpus.data      4550761                       # number of WriteReq accesses(hits+misses)
system.cpu.dcache.WriteReq_accesses::total      4550761                       # number of WriteReq accesses(hits+misses)
system.cpu.dcache.demand_accesses::switch_cpus.data     33055351                       # number of demand (read+write) accesses
system.cpu.dcache.demand_accesses::cpu.data            2                       # number of demand (read+write) accesses
system.cpu.dcache.demand_accesses::total     33055353                       # number of demand (read+write) accesses
system.cpu.dcache.overall_accesses::switch_cpus.data     33055351                       # number of overall (read+write) accesses
system.cpu.dcache.overall_accesses::cpu.data            2                       # number of overall (read+write) accesses
system.cpu.dcache.overall_accesses::total     33055353                       # number of overall (read+write) accesses
system.cpu.dcache.ReadReq_miss_rate::switch_cpus.data     0.000073                       # miss rate for ReadReq accesses
system.cpu.dcache.ReadReq_miss_rate::cpu.data            1                       # miss rate for ReadReq accesses
system.cpu.dcache.ReadReq_miss_rate::total     0.000073                       # miss rate for ReadReq accesses
system.cpu.dcache.WriteReq_miss_rate::switch_cpus.data     0.000001                       # miss rate for WriteReq accesses
system.cpu.dcache.WriteReq_miss_rate::total     0.000001                       # miss rate for WriteReq accesses
system.cpu.dcache.demand_miss_rate::switch_cpus.data     0.000063                       # miss rate for demand accesses
system.cpu.dcache.demand_miss_rate::cpu.data            1                       # miss rate for demand accesses
system.cpu.dcache.demand_miss_rate::total     0.000063                       # miss rate for demand accesses
system.cpu.dcache.overall_miss_rate::switch_cpus.data     0.000063                       # miss rate for overall accesses
system.cpu.dcache.overall_miss_rate::cpu.data            1                       # miss rate for overall accesses
system.cpu.dcache.overall_miss_rate::total     0.000063                       # miss rate for overall accesses
system.cpu.dcache.ReadReq_avg_miss_latency::switch_cpus.data 22384749.157439                       # average ReadReq miss latency
system.cpu.dcache.ReadReq_avg_miss_latency::total 22363215.007215                       # average ReadReq miss latency
system.cpu.dcache.WriteReq_avg_miss_latency::switch_cpus.data     22407000                       # average WriteReq miss latency
system.cpu.dcache.WriteReq_avg_miss_latency::total     22407000                       # average WriteReq miss latency
system.cpu.dcache.demand_avg_miss_latency::switch_cpus.data 22384781.250000                       # average overall miss latency
system.cpu.dcache.demand_avg_miss_latency::total 22363278.097983                       # average overall miss latency
system.cpu.dcache.overall_avg_miss_latency::switch_cpus.data 22384781.250000                       # average overall miss latency
system.cpu.dcache.overall_avg_miss_latency::total 22363278.097983                       # average overall miss latency
system.cpu.dcache.blocked_cycles::no_mshrs            0                       # number of cycles access was blocked
system.cpu.dcache.blocked_cycles::no_targets            0                       # number of cycles access was blocked
system.cpu.dcache.blocked::no_mshrs                 0                       # number of cycles access was blocked
system.cpu.dcache.blocked::no_targets               0                       # number of cycles access was blocked
system.cpu.dcache.avg_blocked_cycles::no_mshrs          nan                       # average number of cycles each access was blocked
system.cpu.dcache.avg_blocked_cycles::no_targets          nan                       # average number of cycles each access was blocked
system.cpu.dcache.fast_writes                       0                       # number of fast writes performed
system.cpu.dcache.cache_copies                      0                       # number of cache copies performed
system.cpu.dcache.ReadReq_mshr_hits::switch_cpus.data         1554                       # number of ReadReq MSHR hits
system.cpu.dcache.ReadReq_mshr_hits::total         1554                       # number of ReadReq MSHR hits
system.cpu.dcache.demand_mshr_hits::switch_cpus.data         1554                       # number of demand (read+write) MSHR hits
system.cpu.dcache.demand_mshr_hits::total         1554                       # number of demand (read+write) MSHR hits
system.cpu.dcache.overall_mshr_hits::switch_cpus.data         1554                       # number of overall MSHR hits
system.cpu.dcache.overall_mshr_hits::total         1554                       # number of overall MSHR hits
system.cpu.dcache.ReadReq_mshr_misses::switch_cpus.data          523                       # number of ReadReq MSHR misses
system.cpu.dcache.ReadReq_mshr_misses::total          523                       # number of ReadReq MSHR misses
system.cpu.dcache.WriteReq_mshr_misses::switch_cpus.data            3                       # number of WriteReq MSHR misses
system.cpu.dcache.WriteReq_mshr_misses::total            3                       # number of WriteReq MSHR misses
system.cpu.dcache.demand_mshr_misses::switch_cpus.data          526                       # number of demand (read+write) MSHR misses
system.cpu.dcache.demand_mshr_misses::total          526                       # number of demand (read+write) MSHR misses
system.cpu.dcache.overall_mshr_misses::switch_cpus.data          526                       # number of overall MSHR misses
system.cpu.dcache.overall_mshr_misses::total          526                       # number of overall MSHR misses
system.cpu.dcache.ReadReq_mshr_miss_latency::switch_cpus.data  11717338000                       # number of ReadReq MSHR miss cycles
system.cpu.dcache.ReadReq_mshr_miss_latency::total  11717338000                       # number of ReadReq MSHR miss cycles
system.cpu.dcache.WriteReq_mshr_miss_latency::switch_cpus.data     67212000                       # number of WriteReq MSHR miss cycles
system.cpu.dcache.WriteReq_mshr_miss_latency::total     67212000                       # number of WriteReq MSHR miss cycles
system.cpu.dcache.demand_mshr_miss_latency::switch_cpus.data  11784550000                       # number of demand (read+write) MSHR miss cycles
system.cpu.dcache.demand_mshr_miss_latency::total  11784550000                       # number of demand (read+write) MSHR miss cycles
system.cpu.dcache.overall_mshr_miss_latency::switch_cpus.data  11784550000                       # number of overall MSHR miss cycles
system.cpu.dcache.overall_mshr_miss_latency::total  11784550000                       # number of overall MSHR miss cycles
system.cpu.dcache.ReadReq_mshr_miss_rate::switch_cpus.data     0.000018                       # mshr miss rate for ReadReq accesses
system.cpu.dcache.ReadReq_mshr_miss_rate::total     0.000018                       # mshr miss rate for ReadReq accesses
system.cpu.dcache.WriteReq_mshr_miss_rate::switch_cpus.data     0.000001                       # mshr miss rate for WriteReq accesses
system.cpu.dcache.WriteReq_mshr_miss_rate::total     0.000001                       # mshr miss rate for WriteReq accesses
system.cpu.dcache.demand_mshr_miss_rate::switch_cpus.data     0.000016                       # mshr miss rate for demand accesses
system.cpu.dcache.demand_mshr_miss_rate::total     0.000016                       # mshr miss rate for demand accesses
system.cpu.dcache.overall_mshr_miss_rate::switch_cpus.data     0.000016                       # mshr miss rate for overall accesses
system.cpu.dcache.overall_mshr_miss_rate::total     0.000016                       # mshr miss rate for overall accesses
system.cpu.dcache.ReadReq_avg_mshr_miss_latency::switch_cpus.data 22404087.954111                       # average ReadReq mshr miss latency
system.cpu.dcache.ReadReq_avg_mshr_miss_latency::total 22404087.954111                       # average ReadReq mshr miss latency
system.cpu.dcache.WriteReq_avg_mshr_miss_latency::switch_cpus.data     22404000                       # average WriteReq mshr miss latency
system.cpu.dcache.WriteReq_avg_mshr_miss_latency::total     22404000                       # average WriteReq mshr miss latency
system.cpu.dcache.demand_avg_mshr_miss_latency::switch_cpus.data 22404087.452471                       # average overall mshr miss latency
system.cpu.dcache.demand_avg_mshr_miss_latency::total 22404087.452471                       # average overall mshr miss latency
system.cpu.dcache.overall_avg_mshr_miss_latency::switch_cpus.data 22404087.452471                       # average overall mshr miss latency
system.cpu.dcache.overall_avg_mshr_miss_latency::total 22404087.452471                       # average overall mshr miss latency
system.cpu.dcache.no_allocate_misses                0                       # Number of misses that were no-allocate

---------- End Simulation Statistics   ----------
